       4
 i =       11, E =       -83.8873913990
 Na         5.0000000000        4.0000000000        3.5700000000
 Cl         5.0000000000        4.0000000000        6.4300000000
  C         5.0000000000       11.2800000000        3.5700000000
  O         5.0000000832       10.1350138541        3.5991505223
